%nproc=16
# B3LYP/6-31G* OPT

1,3-butadiene

0 1
 C                  0.46475995   -1.08784472    0.00000000
 C                  1.14003425    0.08713257    0.00000000
 C                  2.68003425    0.08713257   -0.00000000
 C                  3.36227765   -1.08381191   -0.00000000
 H                  0.99792369   -2.01554964    0.00000000
 H                 -0.60524005   -1.08784472    0.00000000
 H                  0.60687051    1.01483749    0.00000000
 H                  3.21319800    1.01483749   -0.00000000
 H                  2.83463518   -2.01466819   -0.00000000
 H                  4.43225877   -1.07745461    0.00000000

