%nproc=32
# M062X/6-31G* fchk=All Pop=NBO6Read SYMM=loose

C3H3+1

1 1
     6    0.000000    0.786535   -0.000000
     6    0.681159   -0.393267   -0.000000
     6   -0.681159   -0.393267   -0.000000
     1    0.000000    1.870812   -0.000000
     1    1.620171   -0.935406   -0.000000
     1   -1.620171   -0.935406   -0.000000

$NBO         
  AONAO=W    
  BNDIDX     
$END

