%chk=DA_TS
# M062X/Def2SVP EM=GD3 POP=NBO6Read

Transition state

0 1
 6          0.053002       1.395148      -0.464772
 6          0.270041       1.340728       0.910965
 1          0.896925       1.615800      -1.117910
 1         -0.893216       1.841875      -0.771231
 1         -0.469878       1.671592       1.640504
 6         -0.224225      -0.496772      -1.256459
 6          0.462881      -1.421490      -0.464936
 6          0.157646      -1.523238       0.896239
 6         -0.809858      -0.733925       1.493896
 1         -1.295783      -0.373208      -1.094853
 1          0.082361      -0.362125      -2.296745
 1          1.366971      -1.900401      -0.846941
 1          0.819640      -2.104683       1.546692
 1         -1.638365      -0.295705       0.936221
 8          1.473390       1.138580       1.459564
 6         -0.901065      -0.618541       2.946889
 1         -0.169600      -1.243472       3.519224
 8         -1.661691       0.125552       3.522564
 6          2.617038       1.116815       0.633722
 1          3.463681       0.874907       1.285061
 1          2.538856       0.356448      -0.154888
 1          2.784944       2.106048       0.175508

$NBO
  NOBOND
  AONAO=W
$END

